*line regulation
.include ../AE01.08.06.001.cir
.param VIN=30
.dc V1 0 {VIN} 0.1
.backanno


